cmp_1
  -OEChem-07031810503D

 19 20  0     0  0  0  0  0  0999 V2000
    1.8851   -1.0363   -0.1124 C   0  0  0  0  0  0  0  0  0  0  0  0
    2.8783   -1.6520    2.0022 C   0  0  0  0  0  0  0  0  0  0  0  0
    0.8066   -0.4630    0.5610 C   0  0  0  0  0  0  0  0  0  0  0  0
    1.7997   -1.0786    2.6757 C   0  0  0  0  0  0  0  0  0  0  0  0
    4.5093   -1.8022   -1.3040 C   0  0  0  0  0  0  0  0  0  0  0  0
    5.6648   -3.5116   -0.5300 C   0  0  0  0  0  0  0  0  0  0  0  0
    2.9210   -1.6309    0.6081 C   0  0  0  0  0  0  0  0  0  0  0  0
    0.7638   -0.4841    1.9551 C   0  0  0  0  0  0  0  0  0  0  0  0
    4.0312   -2.2217   -0.0850 C   0  0  0  0  0  0  0  0  0  0  0  0
    4.7550   -3.2859    0.3916 N   0  0  0  0  0  0  0  0  0  0  0  0
    5.5558   -2.6377   -1.5757 N   0  0  0  0  0  0  0  0  0  0  0  0
   -0.6982    0.2914    2.8674 Br  0  0  0  0  0  0  0  0  0  0  0  0
    1.9036   -1.0117   -1.1994 H   0  0  0  0  0  0  0  0  0  0  0  0
    3.6774   -2.1130    2.5784 H   0  0  0  0  0  0  0  0  0  0  0  0
    0.0073   -0.0051   -0.0157 H   0  0  0  0  0  0  0  0  0  0  0  0
    1.7807   -1.1051    3.7622 H   0  0  0  0  0  0  0  0  0  0  0  0
    4.2163   -1.0146   -1.9841 H   0  0  0  0  0  0  0  0  0  0  0  0
    6.4224   -4.2817   -0.5017 H   0  0  0  0  0  0  0  0  0  0  0  0
    6.1422   -2.6145   -2.3993 H   0  0  0  0  0  0  0  0  0  0  0  0
  1  3  1  0  0  0  0
  1  7  2  0  0  0  0
  2  4  2  0  0  0  0
  2  7  1  0  0  0  0
  3  8  2  0  0  0  0
  4  8  1  0  0  0  0
  5  9  2  0  0  0  0
  5 11  1  0  0  0  0
  6 10  2  0  0  0  0
  6 11  1  0  0  0  0
  7  9  1  0  0  0  0
  8 12  1  0  0  0  0
  9 10  1  0  0  0  0
  1 13  1  0  0  0  0
  2 14  1  0  0  0  0
  3 15  1  0  0  0  0
  4 16  1  0  0  0  0
  5 17  1  0  0  0  0
  6 18  1  0  0  0  0
 11 19  1  0  0  0  0
M  END
> <Molecule Name>
cmp_1

> <mmff94s_NoEstat>
21.86

> <IC50_microM>
674

$$$$
cmp_2
  -OEChem-07031810503D

 20 21  0     0  0  0  0  0  0999 V2000
   -0.0479   -3.3542    0.5448 C   0  0  0  0  0  0  0  0  0  0  0  0
    1.7243   -5.0072    0.1848 C   0  0  0  0  0  0  0  0  0  0  0  0
   -0.4966   -2.0341    0.4940 C   0  0  0  0  0  0  0  0  0  0  0  0
    3.0228   -5.3167   -0.2210 C   0  0  0  0  0  0  0  0  0  0  0  0
    1.6484   -1.3369   -0.3665 C   0  0  0  0  0  0  0  0  0  0  0  0
    3.4207   -2.9899   -0.7267 C   0  0  0  0  0  0  0  0  0  0  0  0
    1.2560   -3.6839    0.1403 C   0  0  0  0  0  0  0  0  0  0  0  0
    2.1168   -2.6602   -0.3222 C   0  0  0  0  0  0  0  0  0  0  0  0
    0.3500   -1.0275    0.0392 C   0  0  0  0  0  0  0  0  0  0  0  0
    3.8693   -4.3100   -0.6758 C   0  0  0  0  0  0  0  0  0  0  0  0
   -0.0889    0.2601   -0.0103 O   0  0  0  0  0  0  0  0  0  0  0  0
    5.1359   -4.6131   -1.0719 O   0  0  0  0  0  0  0  0  0  0  0  0
   -0.7268   -4.1251    0.9030 H   0  0  0  0  0  0  0  0  0  0  0  0
    1.0798   -5.8099    0.5368 H   0  0  0  0  0  0  0  0  0  0  0  0
   -1.5086   -1.7986    0.8119 H   0  0  0  0  0  0  0  0  0  0  0  0
    3.3671   -6.3464   -0.1793 H   0  0  0  0  0  0  0  0  0  0  0  0
    2.2981   -0.5377   -0.7188 H   0  0  0  0  0  0  0  0  0  0  0  0
    4.0955   -2.2144   -1.0849 H   0  0  0  0  0  0  0  0  0  0  0  0
    0.6116    0.8413   -0.3469 H   0  0  0  0  0  0  0  0  0  0  0  0
    5.5990   -3.8105   -1.3604 H   0  0  0  0  0  0  0  0  0  0  0  0
  1  3  1  0  0  0  0
  1  7  2  0  0  0  0
  2  4  2  0  0  0  0
  2  7  1  0  0  0  0
  3  9  2  0  0  0  0
  4 10  1  0  0  0  0
  5  8  2  0  0  0  0
  5  9  1  0  0  0  0
  6  8  1  0  0  0  0
  6 10  2  0  0  0  0
  7  8  1  0  0  0  0
  9 11  1  0  0  0  0
 10 12  1  0  0  0  0
  1 13  1  0  0  0  0
  2 14  1  0  0  0  0
  3 15  1  0  0  0  0
  4 16  1  0  0  0  0
  5 17  1  0  0  0  0
  6 18  1  0  0  0  0
 11 19  1  0  0  0  0
 12 20  1  0  0  0  0
M  END
> <Molecule Name>
cmp_2

> <mmff94s_NoEstat>
32.76

> <IC50_microM>
336

$$$$
cmp_3
  -OEChem-07031810503D

 14 15  0     0  0  0  0  0  0999 V2000
   -4.3302   -1.3709   -0.2992 C   0  0  0  0  0  0  0  0  0  0  0  0
   -1.0662    0.1715   -0.0699 C   0  0  0  0  0  0  0  0  0  0  0  0
   -3.7514   -2.6183   -0.2696 C   0  0  0  0  0  0  0  0  0  0  0  0
   -3.3344   -0.3502   -0.2248 C   0  0  0  0  0  0  0  0  0  0  0  0
   -2.0621   -0.8492   -0.1436 C   0  0  0  0  0  0  0  0  0  0  0  0
   -1.6453    1.4189   -0.0988 C   0  0  0  0  0  0  0  0  0  0  0  0
   -0.9904    2.6880   -0.0451 C   0  0  0  0  0  0  0  0  0  0  0  0
   -1.5430    3.8090   -0.0733 O   0  0  0  0  0  0  0  0  0  0  0  0
    0.3744    2.5943    0.0468 O   0  5  0  0  0  0  0  0  0  0  0  0
   -2.0424   -2.5948   -0.1550 S   0  0  0  0  0  0  0  0  0  0  0  0
   -3.3543    1.3955   -0.2131 S   0  0  0  0  0  0  0  0  0  0  0  0
   -5.3965   -1.1994   -0.3698 H   0  0  0  0  0  0  0  0  0  0  0  0
   -0.0004   -0.0066    0.0002 H   0  0  0  0  0  0  0  0  0  0  0  0
   -4.2617   -3.5703   -0.3090 H   0  0  0  0  0  0  0  0  0  0  0  0
  1  3  2  0  0  0  0
  1  4  1  0  0  0  0
  2  5  1  0  0  0  0
  2  6  2  0  0  0  0
  3 10  1  0  0  0  0
  4  5  2  0  0  0  0
  4 11  1  0  0  0  0
  5 10  1  0  0  0  0
  6  7  1  0  0  0  0
  6 11  1  0  0  0  0
  7  8  2  0  0  0  0
  7  9  1  0  0  0  0
  1 12  1  0  0  0  0
  2 13  1  0  0  0  0
  3 14  1  0  0  0  0
M  CHG  1   9  -1
M  END
> <Molecule Name>
cmp_3

> <mmff94s_NoEstat>
12.80

> <IC50_microM>
400

$$$$
cmp_4
  -OEChem-07031810503D

 23 24  0     0  0  0  0  0  0999 V2000
    1.8851   -1.0363   -0.1124 C   0  0  0  0  0  0  0  0  0  0  0  0
    2.8783   -1.6520    2.0022 C   0  0  0  0  0  0  0  0  0  0  0  0
    0.8066   -0.4630    0.5610 C   0  0  0  0  0  0  0  0  0  0  0  0
    1.7997   -1.0786    2.6757 C   0  0  0  0  0  0  0  0  0  0  0  0
    5.6813   -2.8159   -1.7454 C   0  0  0  0  0  0  0  0  0  0  0  0
    2.9210   -1.6309    0.6081 C   0  0  0  0  0  0  0  0  0  0  0  0
    0.7638   -0.4841    1.9551 C   0  0  0  0  0  0  0  0  0  0  0  0
    5.7991   -3.4526   -0.5277 C   0  0  0  0  0  0  0  0  0  0  0  0
    4.0364   -2.2239   -0.0883 C   0  0  0  0  0  0  0  0  0  0  0  0
    6.8220   -4.4131   -0.2237 C   0  0  0  0  0  0  0  0  0  0  0  0
   -0.3896    0.1284    2.6750 C   0  0  0  0  0  0  0  0  0  0  0  0
    4.8570   -3.1140    0.4239 N   0  0  0  0  0  0  0  0  0  0  0  0
    7.7224   -4.7965   -0.9954 O   0  0  0  0  0  0  0  0  0  0  0  0
    6.7357   -4.9079    1.0493 O   0  5  0  0  0  0  0  0  0  0  0  0
    4.3388   -1.7493   -1.7095 S   0  0  0  0  0  0  0  0  0  0  0  0
    1.9038   -1.0120   -1.1995 H   0  0  0  0  0  0  0  0  0  0  0  0
    3.6782   -2.1113    2.5781 H   0  0  0  0  0  0  0  0  0  0  0  0
    0.0037   -0.0023   -0.0084 H   0  0  0  0  0  0  0  0  0  0  0  0
    1.7751   -1.0999    3.7620 H   0  0  0  0  0  0  0  0  0  0  0  0
    6.2960   -2.9192   -2.6287 H   0  0  0  0  0  0  0  0  0  0  0  0
   -1.1812   -0.6148    2.8306 H   0  0  0  0  0  0  0  0  0  0  0  0
   -0.0851    0.5223    3.6534 H   0  0  0  0  0  0  0  0  0  0  0  0
   -0.8097    0.9711    2.1104 H   0  0  0  0  0  0  0  0  0  0  0  0
  1  3  1  0  0  0  0
  1  6  2  0  0  0  0
  2  4  2  0  0  0  0
  2  6  1  0  0  0  0
  3  7  2  0  0  0  0
  4  7  1  0  0  0  0
  5  8  2  0  0  0  0
  5 15  1  0  0  0  0
  6  9  1  0  0  0  0
  7 11  1  0  0  0  0
  8 10  1  0  0  0  0
  8 12  1  0  0  0  0
  9 12  2  0  0  0  0
  9 15  1  0  0  0  0
 10 13  2  0  0  0  0
 10 14  1  0  0  0  0
  1 16  1  0  0  0  0
  2 17  1  0  0  0  0
  3 18  1  0  0  0  0
  4 19  1  0  0  0  0
  5 20  1  0  0  0  0
 11 21  1  0  0  0  0
 11 22  1  0  0  0  0
 11 23  1  0  0  0  0
M  CHG  1  14  -1
M  END
> <Molecule Name>
cmp_4

> <mmff94s_NoEstat>
32.11

> <IC50_microM>
433

$$$$
cmp_5
  -OEChem-07031810503D

 23 23  0     0  0  0  0  0  0999 V2000
    1.8851   -1.0363   -0.1124 C   0  0  0  0  0  0  0  0  0  0  0  0
    0.8066   -0.4630    0.5610 C   0  0  0  0  0  0  0  0  0  0  0  0
    2.8783   -1.6520    2.0022 C   0  0  0  0  0  0  0  0  0  0  0  0
    2.9210   -1.6309    0.6081 C   0  0  0  0  0  0  0  0  0  0  0  0
    1.7997   -1.0786    2.6757 C   0  0  0  0  0  0  0  0  0  0  0  0
    0.7638   -0.4841    1.9551 C   0  0  0  0  0  0  0  0  0  0  0  0
    2.7184   -1.6573    4.9440 C   0  0  0  0  0  0  0  0  0  0  0  0
    4.0738   -2.2435   -0.1127 C   0  0  0  0  0  0  0  0  0  0  0  0
    2.3167   -1.4816    6.3870 C   0  0  0  0  0  0  0  0  0  0  0  0
    1.7710   -1.1072    4.0720 N   0  0  0  0  0  0  0  0  0  0  0  0
    3.7664   -2.2221    4.6481 O   0  0  0  0  0  0  0  0  0  0  0  0
   -0.2989    0.0818    2.5941 O   0  0  0  0  0  0  0  0  0  0  0  0
    1.9098   -1.0149   -1.1987 H   0  0  0  0  0  0  0  0  0  0  0  0
    0.0028   -0.0018   -0.0066 H   0  0  0  0  0  0  0  0  0  0  0  0
    3.6868   -2.1176    2.5617 H   0  0  0  0  0  0  0  0  0  0  0  0
    4.8656   -1.5004   -0.2684 H   0  0  0  0  0  0  0  0  0  0  0  0
    4.4940   -3.0865    0.4511 H   0  0  0  0  0  0  0  0  0  0  0  0
    3.7685   -2.6367   -1.0913 H   0  0  0  0  0  0  0  0  0  0  0  0
    1.7214   -2.3393    6.7126 H   0  0  0  0  0  0  0  0  0  0  0  0
    1.7182   -0.5727    6.4966 H   0  0  0  0  0  0  0  0  0  0  0  0
    3.2084   -1.3951    7.0149 H   0  0  0  0  0  0  0  0  0  0  0  0
    0.9568   -0.6714    4.5184 H   0  0  0  0  0  0  0  0  0  0  0  0
   -0.9224    0.4467    1.9471 H   0  0  0  0  0  0  0  0  0  0  0  0
  1  2  1  0  0  0  0
  1  4  2  0  0  0  0
  2  6  2  0  0  0  0
  3  4  1  0  0  0  0
  3  5  2  0  0  0  0
  4  8  1  0  0  0  0
  5  6  1  0  0  0  0
  5 10  1  0  0  0  0
  6 12  1  0  0  0  0
  7  9  1  0  0  0  0
  7 10  1  0  0  0  0
  7 11  2  0  0  0  0
  1 13  1  0  0  0  0
  2 14  1  0  0  0  0
  3 15  1  0  0  0  0
  8 16  1  0  0  0  0
  8 17  1  0  0  0  0
  8 18  1  0  0  0  0
  9 19  1  0  0  0  0
  9 20  1  0  0  0  0
  9 21  1  0  0  0  0
 10 22  1  0  0  0  0
 12 23  1  0  0  0  0
M  END
> <Molecule Name>
cmp_5

> <mmff94s_NoEstat>
33.75

> <IC50_microM>
512

$$$$
cmp_6
  -OEChem-07031810503D

 27 28  0     0  0  0  0  0  0999 V2000
    0.1674   -1.9365    0.9400 C   0  0  0  0  0  0  0  0  0  0  0  0
    0.8323   -3.1650    0.9679 C   0  0  0  0  0  0  0  0  0  0  0  0
    0.5301   -0.9485    0.0103 C   0  0  0  0  0  0  0  0  0  0  0  0
    1.8586   -3.3747    0.0643 C   0  0  0  0  0  0  0  0  0  0  0  0
    1.5628   -1.1767   -0.9007 C   0  0  0  0  0  0  0  0  0  0  0  0
    2.2115   -2.3956   -0.8487 C   0  0  0  0  0  0  0  0  0  0  0  0
    2.6864   -4.5830   -0.1501 C   0  0  0  0  0  0  0  0  0  0  0  0
    3.7316   -4.0214   -1.1421 C   0  0  0  0  0  0  0  0  0  0  0  0
    5.0724   -3.7412   -0.4515 C   0  0  0  0  0  0  0  0  0  0  0  0
    3.9419   -4.9731   -2.3209 C   0  0  0  0  0  0  0  0  0  0  0  0
    1.9452   -0.1309   -1.8881 C   0  0  0  0  0  0  0  0  0  0  0  0
    3.2389   -2.7594   -1.6786 O   0  0  0  0  0  0  0  0  0  0  0  0
    3.1650    0.4813   -1.4840 O   0  0  0  0  0  0  0  0  0  0  0  0
   -0.6416   -1.7445    1.6397 H   0  0  0  0  0  0  0  0  0  0  0  0
    0.5437   -3.9323    1.6785 H   0  0  0  0  0  0  0  0  0  0  0  0
   -0.0062   -0.0027    0.0073 H   0  0  0  0  0  0  0  0  0  0  0  0
    3.1382   -4.9542    0.7746 H   0  0  0  0  0  0  0  0  0  0  0  0
    2.0749   -5.3744   -0.5972 H   0  0  0  0  0  0  0  0  0  0  0  0
    5.7793   -3.3491   -1.1775 H   0  0  0  0  0  0  0  0  0  0  0  0
    5.4620   -4.6632   -0.0287 H   0  0  0  0  0  0  0  0  0  0  0  0
    4.9264   -3.0127    0.3414 H   0  0  0  0  0  0  0  0  0  0  0  0
    4.6802   -4.5556   -3.0023 H   0  0  0  0  0  0  0  0  0  0  0  0
    3.0025   -5.1125   -2.8518 H   0  0  0  0  0  0  0  0  0  0  0  0
    4.2942   -5.9359   -1.9566 H   0  0  0  0  0  0  0  0  0  0  0  0
    2.0844   -0.5556   -2.8930 H   0  0  0  0  0  0  0  0  0  0  0  0
    1.1717    0.6468   -1.9669 H   0  0  0  0  0  0  0  0  0  0  0  0
    3.3743    1.1522   -2.1530 H   0  0  0  0  0  0  0  0  0  0  0  0
  1  2  1  0  0  0  0
  1  3  2  0  0  0  0
  2  4  2  0  0  0  0
  3  5  1  0  0  0  0
  4  6  1  0  0  0  0
  4  7  1  0  0  0  0
  5  6  2  0  0  0  0
  5 11  1  0  0  0  0
  6 12  1  0  0  0  0
  7  8  1  0  0  0  0
  8  9  1  0  0  0  0
  8 10  1  0  0  0  0
  8 12  1  0  0  0  0
 11 13  1  0  0  0  0
  1 14  1  0  0  0  0
  2 15  1  0  0  0  0
  3 16  1  0  0  0  0
  7 17  1  0  0  0  0
  7 18  1  0  0  0  0
  9 19  1  0  0  0  0
  9 20  1  0  0  0  0
  9 21  1  0  0  0  0
 10 22  1  0  0  0  0
 10 23  1  0  0  0  0
 10 24  1  0  0  0  0
 11 25  1  0  0  0  0
 11 26  1  0  0  0  0
 13 27  1  0  0  0  0
M  END
> <Molecule Name>
cmp_6

> <mmff94s_NoEstat>
38.15

> <IC50_microM>
325

$$$$
cmp_7
  -OEChem-07031810503D

 46 49  0     0  0  0  0  0  0999 V2000
    2.9037   -1.6047    2.0014 C   0  0  0  0  0  0  0  0  0  0  0  0
    1.8651   -1.0711   -0.1137 C   0  0  0  0  0  0  0  0  0  0  0  0
   -4.8559   -3.2973    8.7247 C   0  0  0  0  0  0  0  0  0  0  0  0
   -2.4751   -3.5602    8.4086 C   0  0  0  0  0  0  0  0  0  0  0  0
    1.8252   -1.0320    2.6755 C   0  0  0  0  0  0  0  0  0  0  0  0
    0.7866   -0.4984    0.5604 C   0  0  0  0  0  0  0  0  0  0  0  0
   -4.8612   -4.3891    9.5927 C   0  0  0  0  0  0  0  0  0  0  0  0
   -2.4804   -4.6520    9.2767 C   0  0  0  0  0  0  0  0  0  0  0  0
    4.7994   -3.2501    0.3914 C   0  0  0  0  0  0  0  0  0  0  0  0
   -4.7137   -1.3898    6.4457 C   0  0  0  0  0  0  0  0  0  0  0  0
    5.4889   -2.5902   -1.5949 C   0  0  0  0  0  0  0  0  0  0  0  0
    2.9237   -1.6242    0.6068 C   0  0  0  0  0  0  0  0  0  0  0  0
   -3.6629   -2.8829    8.1325 C   0  0  0  0  0  0  0  0  0  0  0  0
    0.7666   -0.4789    1.9550 C   0  0  0  0  0  0  0  0  0  0  0  0
   -3.6735   -5.0664    9.8687 C   0  0  0  0  0  0  0  0  0  0  0  0
    4.0342   -2.2130   -0.0876 C   0  0  0  0  0  0  0  0  0  0  0  0
   -3.6573   -1.7641    7.2422 C   0  0  0  0  0  0  0  0  0  0  0  0
   -2.9895   -0.0426    6.1836 C   0  0  0  0  0  0  0  0  0  0  0  0
   -0.5159    0.2116    4.0188 C   0  0  0  0  0  0  0  0  0  0  0  0
   -2.1986    1.1095    5.6347 C   0  0  0  0  0  0  0  0  0  0  0  0
    4.4684   -1.8070   -1.3246 N   0  0  0  0  0  0  0  0  0  0  0  0
   -2.5872   -0.9213    7.0747 N   0  3  0  0  0  0  0  0  0  0  0  0
    5.7268   -3.4809   -0.5853 N   0  0  0  0  0  0  0  0  0  0  0  0
   -4.2710   -0.2853    5.7738 N   0  0  0  0  0  0  0  0  0  0  0  0
   -0.3123    0.0942    2.6289 N   0  0  0  0  0  0  0  0  0  0  0  0
   -1.7286    0.8522    4.2929 N   0  0  0  0  0  0  0  0  0  0  0  0
    0.2480   -0.1838    4.8962 O   0  0  0  0  0  0  0  0  0  0  0  0
   -3.6810   -6.5465   11.0438 Br  0  0  0  0  0  0  0  0  0  0  0  0
    3.7216   -2.0314    2.5772 H   0  0  0  0  0  0  0  0  0  0  0  0
    1.8660   -1.0782   -1.2012 H   0  0  0  0  0  0  0  0  0  0  0  0
   -5.7901   -2.7800    8.5198 H   0  0  0  0  0  0  0  0  0  0  0  0
   -1.5370   -3.2502    7.9537 H   0  0  0  0  0  0  0  0  0  0  0  0
    1.8203   -1.0216    3.7625 H   0  0  0  0  0  0  0  0  0  0  0  0
   -0.0323   -0.0702   -0.0122 H   0  0  0  0  0  0  0  0  0  0  0  0
   -5.7996   -4.6997   10.0445 H   0  0  0  0  0  0  0  0  0  0  0  0
   -1.5466   -5.1700    9.4799 H   0  0  0  0  0  0  0  0  0  0  0  0
    4.7754   -3.8293    1.3040 H   0  0  0  0  0  0  0  0  0  0  0  0
   -5.7073   -1.7892    6.2963 H   0  0  0  0  0  0  0  0  0  0  0  0
    6.0905   -2.5654   -2.4923 H   0  0  0  0  0  0  0  0  0  0  0  0
   -2.8083    2.0193    5.6098 H   0  0  0  0  0  0  0  0  0  0  0  0
   -1.3252    1.3204    6.2607 H   0  0  0  0  0  0  0  0  0  0  0  0
    6.4557   -4.1815   -0.5653 H   0  0  0  0  0  0  0  0  0  0  0  0
   -4.7972    0.2524    5.0977 H   0  0  0  0  0  0  0  0  0  0  0  0
   -1.0622    0.4856    2.0494 H   0  0  0  0  0  0  0  0  0  0  0  0
   -2.3055    1.1502    3.5127 H   0  0  0  0  0  0  0  0  0  0  0  0
   -1.6979   -0.9658    7.5299 H   0  0  0  0  0  0  0  0  0  0  0  0
  1  5  1  0  0  0  0
  1 12  2  0  0  0  0
  2  6  2  0  0  0  0
  2 12  1  0  0  0  0
  3  7  1  0  0  0  0
  3 13  2  0  0  0  0
  4  8  2  0  0  0  0
  4 13  1  0  0  0  0
  5 14  2  0  0  0  0
  6 14  1  0  0  0  0
  7 15  2  0  0  0  0
  8 15  1  0  0  0  0
  9 16  2  0  0  0  0
  9 23  1  0  0  0  0
 10 17  2  0  0  0  0
 10 24  1  0  0  0  0
 11 21  2  0  0  0  0
 11 23  1  0  0  0  0
 12 16  1  0  0  0  0
 13 17  1  0  0  0  0
 14 25  1  0  0  0  0
 15 28  1  0  0  0  0
 16 21  1  0  0  0  0
 17 22  1  0  0  0  0
 18 20  1  0  0  0  0
 18 22  2  0  0  0  0
 18 24  1  0  0  0  0
 19 25  1  0  0  0  0
 19 26  1  0  0  0  0
 19 27  2  0  0  0  0
 20 26  1  0  0  0  0
  1 29  1  0  0  0  0
  2 30  1  0  0  0  0
  3 31  1  0  0  0  0
  4 32  1  0  0  0  0
  5 33  1  0  0  0  0
  6 34  1  0  0  0  0
  7 35  1  0  0  0  0
  8 36  1  0  0  0  0
  9 37  1  0  0  0  0
 10 38  1  0  0  0  0
 11 39  1  0  0  0  0
 20 40  1  0  0  0  0
 20 41  1  0  0  0  0
 23 42  1  0  0  0  0
 24 43  1  0  0  0  0
 25 44  1  0  0  0  0
 26 45  1  0  0  0  0
 22 46  1  0  0  0  0
M  CHG  1  22   1
M  END
> <Molecule Name>
cmp_7

> <mmff94s_NoEstat>
57.90

> <IC50_microM>
58

$$$$
cmp_8
  -OEChem-07031810503D

 51 54  0     1  0  0  0  0  0999 V2000
   -2.8288    0.6109    0.5805 C   0  0  0  0  0  0  0  0  0  0  0  0
   -1.5881    1.5951    2.4050 C   0  0  0  0  0  0  0  0  0  0  0  0
    1.1003   -1.1972   -9.4431 C   0  0  0  0  0  0  0  0  0  0  0  0
    2.1039    0.9815   -9.1552 C   0  0  0  0  0  0  0  0  0  0  0  0
   -1.6419    0.4316   -0.1299 C   0  0  0  0  0  0  0  0  0  0  0  0
   -0.4011    1.4158    1.6946 C   0  0  0  0  0  0  0  0  0  0  0  0
    1.2062   -1.0631  -10.8274 C   0  0  0  0  0  0  0  0  0  0  0  0
    2.2099    1.1157  -10.5396 C   0  0  0  0  0  0  0  0  0  0  0  0
    1.4854   -1.5066   -6.5092 C   0  0  0  0  0  0  0  0  0  0  0  0
   -5.2563    1.5918    2.0094 C   0  0  0  0  0  0  0  0  0  0  0  0
   -5.3791    1.5674    4.2096 C   0  0  0  0  0  0  0  0  0  0  0  0
   -2.8019    1.1927    1.8480 C   0  0  0  0  0  0  0  0  0  0  0  0
    1.5491   -0.1748   -8.6070 C   0  0  0  0  0  0  0  0  0  0  0  0
   -0.4281    0.8340    0.4272 C   0  0  0  0  0  0  0  0  0  0  0  0
    1.7611    0.0933  -11.3757 C   0  0  0  0  0  0  0  0  0  0  0  0
    1.4400   -0.3118   -7.1880 C   0  0  0  0  0  0  0  0  0  0  0  0
   -4.0235    1.3781    2.5796 C   0  0  0  0  0  0  0  0  0  0  0  0
    1.2205    0.1933   -5.1320 C   0  0  0  0  0  0  0  0  0  0  0  0
    1.0032    0.2581   -2.6244 C   0  0  0  0  0  0  0  0  0  0  0  0
    2.0131    2.2766   -1.4993 C   0  0  0  0  0  0  0  0  0  0  0  0
   -7.5359    1.9460    2.9903 C   0  0  0  0  0  0  0  0  0  0  0  0
    0.8402    1.3079   -1.5280 C   0  0  2  0  0  0  0  0  0  0  0  0
   -4.1068    1.3637    3.9494 N   0  0  0  0  0  0  0  0  0  0  0  0
    1.2753    0.7426   -6.3250 N   0  3  0  0  0  0  0  0  0  0  0  0
    1.3440   -1.1669   -5.1932 N   0  0  0  0  0  0  0  0  0  0  0  0
   -6.1146    1.7107    3.0660 N   0  0  0  0  0  0  0  0  0  0  0  0
    1.0588    0.8433   -3.8852 N   0  0  0  0  0  0  0  0  0  0  0  0
    1.0843   -0.9369   -2.3546 O   0  0  0  0  0  0  0  0  0  0  0  0
    0.7394    0.6576   -0.2711 O   0  0  0  0  0  0  0  0  0  0  0  0
    1.9033    0.2755  -13.2513 Br  0  0  0  0  0  0  0  0  0  0  0  0
   -3.7670    0.2918    0.1327 H   0  0  0  0  0  0  0  0  0  0  0  0
   -1.5504    2.0507    3.3918 H   0  0  0  0  0  0  0  0  0  0  0  0
    0.6654   -2.1047   -9.0314 H   0  0  0  0  0  0  0  0  0  0  0  0
    2.4571    1.7883   -8.5168 H   0  0  0  0  0  0  0  0  0  0  0  0
   -1.6686   -0.0223   -1.1168 H   0  0  0  0  0  0  0  0  0  0  0  0
    0.5410    1.7322    2.1340 H   0  0  0  0  0  0  0  0  0  0  0  0
    0.8505   -1.8685  -11.4645 H   0  0  0  0  0  0  0  0  0  0  0  0
    2.6431    2.0239  -10.9509 H   0  0  0  0  0  0  0  0  0  0  0  0
    1.6014   -2.5342   -6.8243 H   0  0  0  0  0  0  0  0  0  0  0  0
   -5.5899    1.6673    0.9831 H   0  0  0  0  0  0  0  0  0  0  0  0
   -5.8215    1.6208    5.1948 H   0  0  0  0  0  0  0  0  0  0  0  0
    2.9563    1.7430   -1.3355 H   0  0  0  0  0  0  0  0  0  0  0  0
    1.9059    3.0224   -0.7060 H   0  0  0  0  0  0  0  0  0  0  0  0
    2.1040    2.7972   -2.4585 H   0  0  0  0  0  0  0  0  0  0  0  0
   -8.0369    0.9752    2.9509 H   0  0  0  0  0  0  0  0  0  0  0  0
   -7.8594    2.5078    3.8710 H   0  0  0  0  0  0  0  0  0  0  0  0
   -7.7583    2.5289    2.0922 H   0  0  0  0  0  0  0  0  0  0  0  0
   -0.0962    1.8521   -1.6921 H   0  0  0  0  0  0  0  0  0  0  0  0
    1.3321   -1.8040   -4.4080 H   0  0  0  0  0  0  0  0  0  0  0  0
    0.9809    1.8570   -3.9318 H   0  0  0  0  0  0  0  0  0  0  0  0
    1.2111    1.7141   -6.5534 H   0  0  0  0  0  0  0  0  0  0  0  0
  1  5  2  0  0  0  0
  1 12  1  0  0  0  0
  2  6  1  0  0  0  0
  2 12  2  0  0  0  0
  3  7  2  0  0  0  0
  3 13  1  0  0  0  0
  4  8  1  0  0  0  0
  4 13  2  0  0  0  0
  5 14  1  0  0  0  0
  6 14  2  0  0  0  0
  7 15  1  0  0  0  0
  8 15  2  0  0  0  0
  9 16  2  0  0  0  0
  9 25  1  0  0  0  0
 10 17  2  0  0  0  0
 10 26  1  0  0  0  0
 11 23  2  0  0  0  0
 11 26  1  0  0  0  0
 12 17  1  0  0  0  0
 13 16  1  0  0  0  0
 14 29  1  0  0  0  0
 15 30  1  0  0  0  0
 16 24  1  0  0  0  0
 17 23  1  0  0  0  0
 18 24  2  0  0  0  0
 18 25  1  0  0  0  0
 18 27  1  0  0  0  0
 19 22  1  0  0  0  0
 19 27  1  0  0  0  0
 19 28  2  0  0  0  0
 20 22  1  0  0  0  0
 21 26  1  0  0  0  0
 22 29  1  0  0  0  0
  1 31  1  0  0  0  0
  2 32  1  0  0  0  0
  3 33  1  0  0  0  0
  4 34  1  0  0  0  0
  5 35  1  0  0  0  0
  6 36  1  0  0  0  0
  7 37  1  0  0  0  0
  8 38  1  0  0  0  0
  9 39  1  0  0  0  0
 10 40  1  0  0  0  0
 11 41  1  0  0  0  0
 20 42  1  0  0  0  0
 20 43  1  0  0  0  0
 20 44  1  0  0  0  0
 21 45  1  0  0  0  0
 21 46  1  0  0  0  0
 21 47  1  0  0  0  0
 22 48  1  0  0  0  0
 25 49  1  0  0  0  0
 27 50  1  0  0  0  0
 24 51  1  0  0  0  0
M  CHG  1  24   1
M  END
> <Molecule Name>
cmp_8

> <mmff94s_NoEstat>
75.29

> <IC50_microM>
0.27

$$$$
